<routes>
    <vType id="type1" accel="10" decel="10" sigma="0.5" length="5" maxSpeed="20"/>
    <route id="route1" edges="1to2 2to3 3to4 4to5 5to6 6to7 7to4 4to1"/>
    <vehicle id="0" type="type1" route="route1" depart="0" color="1,1,0"/>
    <vehicle id="1" type="type1" route="route1" depart="2.0" color="1,0,0"/>
    <vehicle id="2" type="type1" route="route1" depart="4.0" color="1,0,1"/>
    <vehicle id="3" type="type1" route="route1" depart="6.0" color="1,1,1"/>
    <vehicle id="4" type="type1" route="route1" depart="8.0" color="0,1,1"/>
    <vehicle id="5" type="type1" route="route1" depart="10.0" color="0,1,0"/>

    <vehicle id="6" type="type1" route="route1" depart="12.0" color="1,1,0"/>
    <vehicle id="7" type="type1" route="route1" depart="14.0" color="1,0,0"/>
    <vehicle id="8" type="type1" route="route1" depart="16.0" color="1,0,1"/>
    <vehicle id="9" type="type1" route="route1" depart="18.0" color="1,1,1"/>
    <vehicle id="10" type="type1" route="route1" depart="20.0" color="0,1,1"/>
    <vehicle id="11" type="type1" route="route1" depart="22.0" color="0,1,0"/>
    


</routes>